Version 4
SHEET 1 880 680
WIRE 384 -208 160 -208
WIRE 160 -176 160 -208
WIRE 384 -112 384 -208
WIRE 128 -64 80 -64
WIRE 160 -64 160 -96
WIRE 160 -64 128 -64
WIRE 208 -64 160 -64
WIRE 256 -64 208 -64
WIRE 80 -48 80 -64
WIRE 256 -48 256 -64
WIRE 128 0 128 -64
WIRE 128 0 80 0
WIRE 208 0 208 -64
WIRE 256 0 208 0
WIRE 32 32 -112 32
WIRE 464 32 304 32
WIRE 80 80 80 48
WIRE 176 80 80 80
WIRE 256 80 256 48
WIRE 256 80 176 80
WIRE 176 112 176 80
WIRE 336 112 176 112
WIRE 592 112 480 112
WIRE 176 128 176 112
WIRE 288 176 176 176
WIRE 128 208 16 208
WIRE 176 240 176 224
WIRE 288 240 288 176
WIRE 288 240 176 240
WIRE 176 256 176 240
WIRE 272 304 176 304
WIRE 128 336 16 336
WIRE 176 368 176 352
WIRE 272 368 272 304
WIRE 272 368 176 368
WIRE 176 384 176 368
FLAG 176 384 0
FLAG 384 -112 0
FLAG -112 32 A
IOPIN -112 32 In
FLAG 464 32 B
IOPIN 464 32 In
FLAG 16 208 A
IOPIN 16 208 In
FLAG 16 336 B
IOPIN 16 336 In
FLAG 592 112 OUT
IOPIN 592 112 Out
SYMBOL nmos4 128 128 R0
SYMATTR InstName M1
SYMBOL nmos4 128 256 R0
SYMATTR InstName M2
SYMBOL pmos4 32 -48 R0
SYMATTR InstName M3
SYMBOL pmos4 304 -48 M0
SYMATTR InstName M4
SYMBOL voltage 160 -80 R180
WINDOW 0 24 96 Left 2
WINDOW 3 24 16 Left 2
WINDOW 123 0 0 Left 0
WINDOW 39 0 0 Left 0
SYMATTR InstName V1
SYMATTR Value 5
SYMBOL NotGate 400 112 R0
SYMATTR InstName X1
