Version 4
SHEET 1 1012 692
WIRE 96 128 96 64
WIRE 400 128 400 64
WIRE 672 128 672 64
WIRE 928 128 928 64
WIRE 160 176 96 176
WIRE 464 176 400 176
WIRE 736 176 672 176
WIRE 992 176 928 176
WIRE -224 208 -256 208
WIRE 16 208 -80 208
WIRE 48 208 16 208
WIRE 352 208 320 208
WIRE 16 256 16 208
WIRE 624 256 624 208
WIRE 624 256 16 256
WIRE -256 272 -256 208
WIRE -256 272 -320 272
WIRE 320 272 320 208
WIRE 320 272 -256 272
WIRE 880 272 880 208
WIRE 880 272 320 272
WIRE 96 288 96 224
WIRE 224 288 96 288
WIRE 400 288 400 224
WIRE 400 288 224 288
WIRE 672 288 672 224
WIRE 800 288 672 288
WIRE 928 288 928 224
WIRE 928 288 800 288
WIRE 224 320 224 288
WIRE 800 336 800 288
WIRE 288 368 224 368
WIRE 864 384 800 384
WIRE -224 400 -256 400
WIRE 176 400 -80 400
WIRE 752 416 704 416
WIRE -256 480 -256 400
WIRE -256 480 -320 480
WIRE 704 480 704 416
WIRE 704 480 -256 480
WIRE 224 512 224 416
WIRE 560 512 224 512
WIRE 800 512 800 432
WIRE 800 512 560 512
WIRE 560 560 560 512
FLAG 160 176 0
FLAG 464 176 0
FLAG 736 176 0
FLAG 992 176 0
FLAG 288 368 0
FLAG 864 384 0
FLAG -320 272 A0
IOPIN -320 272 In
FLAG -320 480 A1
IOPIN -320 480 In
FLAG 560 560 data
IOPIN 560 560 In
FLAG 96 64 B0
IOPIN 96 64 Out
FLAG 400 64 B1
IOPIN 400 64 Out
FLAG 672 64 B2
IOPIN 672 64 Out
FLAG 928 64 B3
IOPIN 928 64 Out
SYMBOL nmos4 48 128 R0
SYMATTR InstName M1
SYMATTR Value2 l=0.6u w=3.6u
SYMBOL nmos4 352 128 R0
SYMATTR InstName M2
SYMATTR Value2 l=0.6u w=3.6u
SYMBOL nmos4 624 128 R0
SYMATTR InstName M3
SYMATTR Value2 l=0.6u w=3.6u
SYMBOL nmos4 880 128 R0
SYMATTR InstName M4
SYMATTR Value2 l=0.6u w=3.6u
SYMBOL nmos4 752 336 R0
SYMATTR InstName M5
SYMATTR Value2 l=0.6u w=3.6u
SYMBOL nmos4 176 320 R0
SYMATTR InstName M6
SYMATTR Value2 l=0.6u w=3.6u
SYMBOL NotGate -160 208 R0
SYMATTR InstName NOT0
SYMBOL NotGate -160 400 R0
SYMATTR InstName NOT1
