Version 4
SHEET 1 880 680
WIRE 400 -96 224 -96
WIRE 224 -48 224 -96
WIRE 304 0 224 0
WIRE -80 32 -144 32
WIRE 176 32 64 32
WIRE 224 192 224 48
WIRE 320 240 224 240
WIRE 176 272 -144 272
WIRE 400 272 400 -96
WIRE 224 304 224 288
WIRE 320 304 320 240
WIRE 320 304 224 304
WIRE 224 368 224 304
FLAG 224 368 0
FLAG -144 32 DLinput
IOPIN -144 32 In
FLAG -144 272 WL
IOPIN -144 272 In
FLAG 400 272 BL
IOPIN 400 272 BiDir
FLAG 304 0 0
SYMBOL NotGate -16 32 R0
SYMATTR InstName NOT1
SYMBOL nmos4 176 -48 R0
SYMATTR InstName M1
SYMATTR Value2 l=0.6u w=3.6u
SYMBOL nmos4 176 192 R0
SYMATTR InstName M2
SYMATTR Value2 l=0.6u w=3.6u
