Version 4
SHEET 1 1888 752
WIRE 256 -512 160 -512
WIRE 1472 -512 256 -512
WIRE 1776 -496 1568 -496
WIRE 944 -480 160 -480
WIRE 1472 -480 944 -480
WIRE 448 -272 160 -272
WIRE 1488 -272 448 -272
WIRE 1776 -256 1584 -256
WIRE 944 -240 944 -480
WIRE 944 -240 160 -240
WIRE 1488 -240 944 -240
WIRE 256 -48 256 -512
WIRE 256 -48 160 -48
WIRE 1504 -48 256 -48
WIRE 1776 -32 1600 -32
WIRE 1136 -16 160 -16
WIRE 1504 -16 1136 -16
WIRE 448 176 448 -272
WIRE 448 176 160 176
WIRE 1536 176 448 176
WIRE 1776 192 1632 192
WIRE 1136 208 1136 -16
WIRE 1136 208 160 208
WIRE 1536 208 1136 208
WIRE 448 288 448 176
WIRE 1136 288 1136 208
WIRE 256 464 256 -48
WIRE 448 464 448 432
WIRE 448 464 256 464
WIRE 944 464 944 -240
WIRE 1136 464 1136 432
WIRE 1136 464 944 464
WIRE 944 480 944 464
WIRE 256 496 256 464
FLAG 1776 192 WL0
IOPIN 1776 192 Out
FLAG 1776 -32 WL1
IOPIN 1776 -32 Out
FLAG 1776 -256 WL2
IOPIN 1776 -256 Out
FLAG 1776 -496 WL3
IOPIN 1776 -496 Out
FLAG 256 496 A0
IOPIN 256 496 In
FLAG 944 480 A1
IOPIN 944 480 In
SYMBOL AndGate 1520 -496 R0
SYMATTR InstName AND3
SYMBOL AndGate 1536 -256 R0
SYMATTR InstName AND2
SYMBOL AndGate 1552 -32 R0
SYMATTR InstName AND1
SYMBOL AndGate 1584 192 R0
SYMATTR InstName AND0
SYMBOL NotGate 448 368 R270
SYMATTR InstName NOT0
SYMBOL NotGate 1136 368 R270
SYMATTR InstName NOT1
