Version 4
SHEET 1 2184 680
WIRE 1040 16 1040 -16
WIRE 1040 16 976 16
WIRE -128 48 -208 48
WIRE 176 48 -128 48
WIRE 416 48 176 48
WIRE 704 48 416 48
WIRE 1008 48 704 48
WIRE 1312 48 1008 48
WIRE 1616 48 1312 48
WIRE 1856 48 1616 48
WIRE 960 128 960 -16
WIRE 960 128 944 128
WIRE -128 160 -128 48
WIRE -48 160 -128 160
WIRE 176 160 176 48
WIRE 224 160 176 160
WIRE 416 160 416 48
WIRE 464 160 416 160
WIRE 704 160 704 48
WIRE 768 160 704 160
WIRE 976 160 976 16
WIRE 976 160 944 160
WIRE 1008 160 1008 48
WIRE 1024 160 1008 160
WIRE 1312 160 1312 48
WIRE 1344 160 1312 160
WIRE 1616 160 1616 48
WIRE 1648 160 1616 160
WIRE 1856 160 1856 48
WIRE 1904 160 1856 160
WIRE 128 176 128 -16
WIRE 128 176 96 176
WIRE 384 176 384 -16
WIRE 384 176 368 176
WIRE 672 176 672 -16
WIRE 672 176 656 176
WIRE 1264 176 1264 -16
WIRE 1264 176 1232 176
WIRE 1568 176 1568 -16
WIRE 1568 176 1536 176
WIRE 1824 176 1824 -16
WIRE 1824 176 1792 176
WIRE 2112 176 2112 -16
WIRE 2112 176 2048 176
WIRE -48 192 -128 192
WIRE 224 192 176 192
WIRE 464 192 416 192
WIRE 768 192 704 192
WIRE 976 192 944 192
WIRE 1024 192 1008 192
WIRE 1344 192 1312 192
WIRE 1648 192 1616 192
WIRE 1904 192 1856 192
WIRE 960 224 944 224
WIRE -128 320 -128 192
WIRE 176 320 176 192
WIRE 176 320 -128 320
WIRE 416 320 416 192
WIRE 416 320 176 320
WIRE 704 320 704 192
WIRE 704 320 416 320
WIRE 1008 320 1008 192
WIRE 1008 320 704 320
WIRE 1312 320 1312 192
WIRE 1312 320 1008 320
WIRE 1616 320 1616 192
WIRE 1616 320 1312 320
WIRE 1856 320 1856 192
WIRE 1856 320 1616 320
WIRE 2048 320 1856 320
WIRE 976 352 976 192
WIRE 1040 352 976 352
WIRE 960 384 960 224
WIRE 1040 384 1040 352
FLAG 2048 320 D
IOPIN 2048 320 BiDir
FLAG -208 48 DBAR
IOPIN -208 48 BiDir
FLAG 128 -16 ACTa
IOPIN 128 -16 In
FLAG 384 -16 EQUa
IOPIN 384 -16 In
FLAG 672 -16 ISOBARa
IOPIN 672 -16 In
FLAG 960 -16 WE
IOPIN 960 -16 In
FLAG 1040 -16 IOBAR
IOPIN 1040 -16 In
FLAG 960 384 CSEL
IOPIN 960 384 In
FLAG 1040 384 IO
IOPIN 1040 384 In
FLAG 1264 -16 NLATBAR
IOPIN 1264 -16 In
FLAG 1568 -16 ISOBARb
IOPIN 1568 -16 In
FLAG 1824 -16 EQUb
IOPIN 1824 -16 In
FLAG 2112 -16 ACTb
IOPIN 2112 -16 In
SYMBOL PSenseAmp 32 176 R180
SYMATTR InstName PSenseA
SYMBOL EquilibBias 304 176 R180
SYMATTR InstName EquA
SYMBOL Isolation 560 176 R180
SYMATTR InstName IsoA
SYMBOL WriteDriver 864 176 R180
SYMATTR InstName IO
SYMBOL NSenseAmp 1136 176 R180
SYMATTR InstName NSense
SYMBOL Isolation 1440 176 R180
SYMATTR InstName IsoB
SYMBOL EquilibBias 1728 176 R180
SYMATTR InstName EquB
SYMBOL PSenseAmp 1984 176 R180
SYMATTR InstName PSenseB
