Version 4
SHEET 1 880 680
WIRE -48 -448 -176 -448
WIRE 192 -448 -48 -448
WIRE 256 -448 192 -448
WIRE -48 -384 -48 -448
WIRE 0 -384 -48 -384
WIRE 192 -384 192 -448
WIRE 208 -384 192 -384
FLAG -176 -448 DBAR
IOPIN -176 -448 BiDir
SYMBOL PSenseAmp 80 -368 R180
SYMATTR InstName X1
SYMBOL EquilibBias 288 -368 R180
SYMATTR InstName X2
