Version 4
SHEET 1 2600 804
WIRE 1248 -80 1248 -128
WIRE 1712 -80 1712 -128
WIRE 784 -64 784 -112
WIRE 784 176 784 16
WIRE 784 176 544 176
WIRE 1248 208 1248 0
WIRE 1248 208 544 208
WIRE 1712 240 1712 0
WIRE 1712 240 544 240
WIRE 64 336 0 336
WIRE 2208 336 544 336
WIRE 336 352 240 352
WIRE 0 368 0 336
WIRE 64 368 0 368
WIRE 1744 368 544 368
WIRE 576 400 544 400
WIRE 800 400 720 400
WIRE 800 432 800 400
WIRE 800 432 544 432
WIRE 1280 464 544 464
WIRE 800 496 544 496
WIRE 688 528 544 528
WIRE 688 592 688 528
WIRE 800 592 800 496
WIRE 1280 592 1280 464
WIRE 1744 592 1744 368
WIRE 2208 592 2208 336
WIRE 0 624 0 368
WIRE 800 720 800 672
WIRE 1280 720 1280 672
WIRE 1744 720 1744 672
WIRE 2208 720 2208 672
WIRE 0 784 0 704
FLAG 688 592 0
FLAG 800 720 0
FLAG 1280 720 0
FLAG 1744 720 0
FLAG 2208 720 0
FLAG 1248 -128 0
FLAG 784 -112 0
FLAG 1712 -128 0
FLAG 0 784 0
SYMBOL Mram 144 352 R0
SYMATTR InstName X1
SYMBOL Sense_Amplifier 448 336 R180
SYMATTR InstName X2
SYMBOL NotGate 656 400 M0
SYMATTR InstName X3
SYMBOL Misc\\signal 800 576 R0
WINDOW 123 0 0 Left 0
WINDOW 39 0 0 Left 0
SYMATTR InstName actb
SYMATTR Value PULSE(0 1 600 0 0 400 1000 1)
SYMBOL Misc\\signal 1280 576 R0
WINDOW 123 0 0 Left 0
WINDOW 39 0 0 Left 0
SYMATTR InstName csel
SYMATTR Value PULSE(0 1 800 0 0 200 1000 1)
SYMBOL Misc\\signal 1744 576 R0
WINDOW 123 0 0 Left 0
WINDOW 39 0 0 Left 0
SYMATTR InstName equa
SYMATTR Value PULSE(1 1 0 0 0 1000 1000 1)
SYMBOL Misc\\signal 2208 576 R0
WINDOW 123 0 0 Left 0
WINDOW 39 0 0 Left 0
SYMATTR InstName equb
SYMATTR Value PULSE(0 1 0 0 0 200 1000 1)
SYMBOL Misc\\signal 1248 16 R180
WINDOW 123 0 0 Left 0
WINDOW 39 0 0 Left 0
SYMATTR InstName isobarb
SYMATTR Value PULSE(1 1 0 0 0 1000 1000 1)
SYMBOL Misc\\signal 784 32 R180
WINDOW 123 0 0 Left 0
WINDOW 39 0 0 Left 0
SYMATTR InstName nlatbar
SYMATTR Value PULSE(0 0.5 0 0 0 600 1000 1)
SYMBOL Misc\\signal 1712 16 R180
WINDOW 123 0 0 Left 0
WINDOW 39 0 0 Left 0
SYMATTR InstName isobbara
SYMATTR Value PULSE(0 1 0 0 0 200 1000 1)
SYMBOL voltage 0 608 R0
WINDOW 123 0 0 Left 0
WINDOW 39 0 0 Left 0
SYMATTR InstName V1
SYMATTR Value 8
TEXT 58 744 Left 2 !.tran 1000
