Version 4
SHEET 1 880 680
WIRE 192 96 48 96
WIRE 432 112 288 112
WIRE 192 128 112 128
WIRE 192 192 48 192
WIRE 368 208 288 208
WIRE 112 224 112 128
WIRE 192 224 112 224
WIRE 432 256 432 112
WIRE 496 256 432 256
WIRE 544 256 544 176
WIRE 704 256 592 256
WIRE 112 320 112 224
WIRE 576 320 576 304
WIRE 576 320 512 320
WIRE 704 320 576 320
WIRE 512 352 512 320
WIRE 368 400 368 208
WIRE 496 400 368 400
WIRE 704 400 592 400
WIRE 368 448 368 400
WIRE 432 448 432 256
WIRE 544 448 544 400
FLAG 48 96 D
IOPIN 48 96 BiDir
FLAG 48 192 DBAR
IOPIN 48 192 BiDir
FLAG 112 320 WE
IOPIN 112 320 In
FLAG 432 448 IO
IOPIN 432 448 In
FLAG 368 448 IOBAR
IOPIN 368 448 In
FLAG 704 320 CSEL
IOPIN 704 320 In
FLAG 704 256 D
IOPIN 704 256 BiDir
FLAG 704 400 DBAR
IOPIN 704 400 BiDir
FLAG 544 176 0
FLAG 544 448 0
SYMBOL AndGate 240 112 R0
SYMATTR InstName AND1
SYMBOL AndGate 240 208 R0
SYMATTR InstName AND2
SYMBOL nmos4 496 304 R270
SYMATTR InstName M1
SYMATTR Value2 l=8u w=5u
SYMBOL nmos4 592 352 R90
SYMATTR InstName M2
SYMATTR Value2 l=8u w=5u
